data/input/matpower/sample_513.m
function mpc = powergrid
mpc.version = '2';
mpc.baseMVA = 100;
mpc.bus = [
	1	1	112.501789	62.852684	0	-400	1	1.029349	12.553067	130	1	1.100000	0.900000;
	2	1	71.643151	30.084859	0	0	1	1.022902	14.872775	130	1	1.100000	0.900000;
	3	1	243.867668	49.203870	0	0	1	1.004605	17.310037	130	1	1.100000	0.900000;
	4	1	132.952835	90.150186	0	0	1	1.038752	3.696710	130	1	1.100000	0.900000;
	5	1	59.064563	23.461681	0	0	1	1.005517	-9.512245	130	1	1.100000	0.900000;
	6	1	62.072822	24.831571	0	0	1	1.000917	-4.623939	130	1	1.100000	0.900000;
	7	1	2.277468	1.398567	0	0	1	1.002945	-5.516422	130	1	1.100000	0.900000;
	8	1	359.294851	214.226950	0	0	1	1.006545	-10.568155	130	1	1.100000	0.900000;
	9	1	100.299818	32.898017	0	0	1	1.030477	-11.485252	130	1	1.100000	0.900000;
	10	1	81.009654	40.694302	0	0	1	1.039630	-0.221367	220	1	1.100000	0.900000;
	11	1	42.503408	5.781484	0	0	1	1.011546	8.044162	220	1	1.100000	0.900000;
	12	1	367.653824	159.071344	0	-400	1	0.976019	9.417548	400	1	1.100000	0.900000;
	13	1	147.498984	91.475034	0	0	1	1.005083	7.939701	400	1	1.100000	0.900000;
	14	1	636.891406	281.801501	0	0	1	1.026784	-12.401545	400	1	1.100000	0.900000;
	15	1	745.119258	134.623913	0	0	1	1.019457	-9.325171	400	1	1.100000	0.900000;
	16	1	292.088371	215.304521	0	0	1	0.997569	-9.953268	400	1	1.100000	0.900000;
	17	1	203.826678	95.512576	0	0	1	0.986151	-9.628881	400	1	1.100000	0.900000;
	18	1	437.120756	306.464154	0	0	1	0.980256	-7.389203	400	1	1.100000	0.900000;
	19	1	346.628069	28.853726	0	0	1	1.026829	-10.235560	400	1	1.100000	0.900000;
	20	1	106.490679	52.991307	0	0	1	1.031600	-21.075162	400	1	1.100000	0.900000;
	21	1	966.967160	-282.358795	0	0	1	1.034973	-23.661332	400	1	1.100000	0.900000;
	22	1	711.962491	318.329141	0	0	1	0.998087	-22.885909	400	1	1.100000	0.900000;
	23	1	0	0	0	-100	1	0.930578	12.884229	400	1	1.100000	0.900000;
	24	1	0	0	0	0	1	1.009060	20.626337	130	1	1.100000	0.900000;
	25	1	0	0	0	0	1	1.041905	3.670622	130	1	1.100000	0.900000;
	26	1	0	0	0	0	1	0.960789	12.073024	400	1	1.100000	0.900000;
	27	1	0	0	0	0	1	1.034994	-1.250932	400	1	1.100000	0.900000;
	28	1	0	0	0	0	1	0.979929	4.536038	400	1	1.100000	0.900000;
	29	1	0	0	0	0	1	1.026061	-3.825617	400	1	1.100000	0.900000;
	30	1	0	0	0	0	1	0.942797	-14.916792	400	1	1.100000	0.900000;
	31	1	0	0	0	0	1	1.009223	-1.703114	400	1	1.100000	0.900000;
	32	1	0	0	0	0	1	1.007485	-22.060176	400	1	1.100000	0.900000;
	33	1	0	0	0	0	1	1.007485	-22.060176	400	1	1.100000	0.900000;
	34	1	0	0	0	0	1	0.992464	-12.987441	400	1	1.100000	0.900000;
	35	1	0	0	0	0	1	0.975130	-14.354500	400	1	1.100000	0.900000;
	36	1	0	0	0	0	1	1.019971	-10.370922	400	1	1.100000	0.900000;
	37	1	0	0	0	0	1	1.035161	-11.460466	400	1	1.100000	0.900000;
	38	2	0	0	0	0	1	1	18.194635	15	1	1.100000	0.900000;
	39	2	0	0	0	0	1	1	20.789310	15	1	1.100000	0.900000;
	40	2	0	0	0	0	1	1	26.171279	15	1	1.100000	0.900000;
	41	2	0	0	0	0	1	0	3.670622	15	1	1.100000	0.900000;
	42	2	0	0	0	0	1	0	3.696710	15	1	1.100000	0.900000;
	43	2	0	0	0	0	1	1	-0.886323	15	1	1.100000	0.900000;
	44	2	0	0	0	0	1	1	8.996242	15	1	1.100000	0.900000;
	45	2	0	0	0	0	1	1	11.720091	15	1	1.100000	0.900000;
	46	2	0	0	0	0	1	1	17.897371	15	1	1.100000	0.900000;
	47	2	0	0	0	0	1	0	12.884229	15	1	1.100000	0.900000;
	48	2	0	0	0	0	1	0	-1.250932	15	1	1.100000	0.900000;
	49	2	0	0	0	0	1	1	10.633958	15	1	1.100000	0.900000;
	50	2	0	0	0	0	1	0	-12.401545	15	1	1.100000	0.900000;
	51	2	0	0	0	0	1	1	-3.836953	15	1	1.100000	0.900000;
	52	3	0	0	0	0	1	1	0	15	1	1.000000	1.000000;
	53	2	0	0	0	0	1	1	-1.680909	15	1	1.100000	0.900000;
	54	2	0	0	0	0	1	1	-4.786866	15	1	1.100000	0.900000;
	55	2	0	0	0	0	1	0	-10.235560	15	1	1.100000	0.900000;
	56	2	0	0	0	0	1	1	-18.255746	15	1	1.100000	0.900000;
	57	2	0	0	0	0	1	1	-17.279920	15	1	1.100000	0.900000;
	58	2	0	0	0	0	1	1	-17.279920	15	1	1.100000	0.900000;
	59	2	0	0	0	0	1	1	15.150706	15	1	1.100000	0.900000;
	60	2	0	0	0	0	1	0	7.939701	15	1	1.100000	0.900000;
	61	2	0	0	0	0	1	0	-9.512245	15	1	1.100000	0.900000;
];
mpc.gen = [
	52	0	0	1840.000000	-540.000000	1	1	1	2800.000000	10.000000	0	0	0	0	0	0	0	0	0	0	0;
	38	316.117269	0	720.000000	-720.000000	1	100	1	720.000000	10.000000	0	0	0	0	0	0	0	0	0	0	0;
	39	243.867669	0	540.000000	-540.000000	1	100	1	540.000000	10.000000	0	0	0	0	0	0	0	0	0	0	0;
	40	455.000000	0	630.000000	-630.000000	1	100	1	630.000000	10.000000	0	0	0	0	0	0	0	0	0	0	0;
	41	0	0	540.000000	-540.000000	0	100	0	540.000000	10.000000	0	0	0	0	0	0	0	0	0	0	0;
	42	0	0	325.000000	-225.000000	0	100	0	475.000000	10.000000	0	0	0	0	0	0	0	0	0	0	0;
	43	173.992575	0	560.000000	-360.000000	1	100	1	560.000000	10.000000	0	0	0	0	0	0	0	0	0	0	0;
	44	335.109166	0	360.000000	-280.000000	1	100	1	380.000000	10.000000	0	0	0	0	0	0	0	0	0	0	0;
	45	367.503396	0	965.000000	-765.000000	1	100	1	965.000000	10.000000	0	0	0	0	0	0	0	0	0	0	0;
	46	650.000000	0	900.000000	-900.000000	1	100	1	900.000000	10.000000	0	0	0	0	0	0	0	0	0	0	0;
	47	0	0	720.000000	-720.000000	0	100	0	720.000000	10.000000	0	0	0	0	0	0	0	0	0	0	0;
	48	0	0	570.000000	-370.000000	0	100	0	570.000000	10.000000	0	0	0	0	0	0	0	0	0	0	0;
	49	503.145632	0	515.000000	-415.000000	1	100	1	575.000000	10.000000	0	0	0	0	0	0	0	0	0	0	0;
	50	0	0	570.000000	-570.000000	0	100	0	0.000000	-0.000000	0	0	0	0	0	0	0	0	0	0	0;
	51	455.000000	0	630.000000	-630.000000	1	100	1	630.000000	10.000000	0	0	0	0	0	0	0	0	0	0	0;
	53	390.000000	0	580.000000	-540.000000	1	100	1	540.000000	10.000000	0	0	0	0	0	0	0	0	0	0	0;
	54	455.000000	0	630.000000	-630.000000	1	100	1	630.000000	10.000000	0	0	0	0	0	0	0	0	0	0	0;
	55	0	0	630.000000	-630.000000	0	100	0	630.000000	10.000000	0	0	0	0	0	0	0	0	0	0	0;
	56	390.000000	0	540.000000	-540.000000	1	100	1	540.000000	10.000000	0	0	0	0	0	0	0	0	0	0	0;
	57	390.000000	0	540.000000	-540.000000	1	100	1	540.000000	10.000000	0	0	0	0	0	0	0	0	0	0	0;
	58	390.000000	0	540.000000	-540.000000	1	100	1	540.000000	10.000000	0	0	0	0	0	0	0	0	0	0	0;
	59	325.000000	0	520.000000	-450.000000	1	100	1	560.000000	10.000000	0	0	0	0	0	0	0	0	0	0	0;
	60	0	0	4000.000000	-2050.000000	0	100	0	4500.000000	10.000000	0	0	0	0	0	0	0	0	0	0	0;
	61	0	0	250.000000	-250.000000	0	100	0	0.000000	-0.000000	0	0	0	0	0	0	0	0	0	0	0;
];
mpc.branch = [
	1	3	0.010000	0.070000	0.013804	175.000000	250	250	0	0	1	-360	360;
	1	3	0.010000	0.070000	0.013804	175.000000	250	250	0	0	1	-360	360;
	2	24	0.014024	0.090000	0.018052	175.000000	250	250	0	0	1	-360	360;
	2	24	0.014024	0.090000	0.018052	175.000000	250	250	0	0	1	-360	360;
	3	24	0.006982	0.050000	0.010088	175.000000	250	250	0	0	1	-360	360;
	3	24	0.006982	0.050000	0.010088	175.000000	250	250	0	0	1	-360	360;
	25	4	0.030000	0.200000	0.030263	175.000000	250	250	0	0	1	-360	360;
	25	4	0.030000	0.200000	0.030263	175.000000	250	250	0	0	1	-360	360;
	5	7	0.010000	0.060000	0.012211	175.000000	250	250	0	0	0	-360	360;
	5	7	0.010000	0.060000	0.012211	175.000000	250	250	0	0	1	-360	360;
	5	9	0.014970	0.120000	0.024954	175.000000	250	250	0	0	1	-360	360;
	5	9	0.014970	0.120000	0.024954	175.000000	250	250	0	0	1	-360	360;
	6	8	0.037988	0.280000	0.059995	175.000000	250	250	0	0	1	-360	360;
	6	8	0.037988	0.280000	0.059995	175.000000	250	250	0	0	1	-360	360;
	6	9	0.050000	0.300000	0.059995	175.000000	250	250	0	0	1	-360	360;
	7	8	0.010000	0.080000	0.015928	175.000000	250	250	0	0	1	-360	360;
	7	8	0.010000	0.080000	0.015928	175.000000	250	250	0	0	1	-360	360;
	10	11	0.012004	0.090000	0.015205	250.000000	250	250	0	0	1	-360	360;
	10	11	0.012004	0.090000	0.015205	250.000000	250	250	0	0	1	-360	360;
	26	23	0.001000	0.008000	0.201062	700.000000	250	250	0	0	0	-360	360;
	26	27	0.006000	0.060000	1.799488	700.000000	250	250	0	0	1	-360	360;
	26	28	0.004000	0.040000	1.201344	700.000000	250	250	0	0	1	-360	360;
	26	12	0.005000	0.045000	1.402400	700.000000	250	250	0	0	1	-360	360;
	23	28	0.004000	0.035000	1.050560	700.000000	250	250	0	0	1	-360	360;
	23	12	0.005000	0.050000	1.497920	700.000000	250	250	0	0	1	-360	360;
	27	29	0.004000	0.040000	1.201344	700.000000	250	250	0	0	1	-360	360;
	27	30	0.010000	0.100000	3.000864	700.000000	250	250	0	0	1	-360	360;
	30	15	0	-0.040000	0	700.000000	250	250	0	0	1	-360	360;
	28	31	0.004000	0.040000	1.201344	700.000000	250	250	0	0	1	-360	360;
	28	31	0.004000	0.040000	1.201344	700.000000	250	250	0	0	1	-360	360;
	31	29	0.001000	0.010000	0.301594	700.000000	250	250	0	0	1	-360	360;
	31	32	0.006000	0.080000	2.397664	700.000000	250	250	0	0	1	-360	360;
	32	14	0	-0.040000	0	700.000000	250	250	0	0	1	-360	360;
	31	33	0.006000	0.080000	2.397664	700.000000	250	250	0	0	1	-360	360;
	33	14	0	-0.040000	0	700.000000	250	250	0	0	1	-360	360;
	29	34	0.010000	0.066669	2.000576	700.000000	250	250	0	0	1	-360	360;
	34	15	0	-0.026669	0	700.000000	250	250	0	0	1	-360	360;
	29	35	0.006000	0.080000	2.397664	700.000000	250	250	0	0	1	-360	360;
	35	36	0	-0.030000	0	700.000000	250	250	0	0	1	-360	360;
	14	36	0.003000	0.030000	0.899744	700.000000	250	250	0	0	1	-360	360;
	14	20	0.006000	0.045000	1.301888	700.000000	250	250	0	0	1	-360	360;
	15	16	0.002000	0.015000	0.497632	700.000000	250	250	0	0	1	-360	360;
	15	36	0.002000	0.020000	0.598176	700.000000	250	250	0	0	1	-360	360;
	16	36	0.001000	0.010000	0.301594	700.000000	250	250	0	0	1	-360	360;
	16	17	0.001000	0.010000	0.301594	700.000000	250	250	0	0	1	-360	360;
	16	18	0.002000	0.020000	0.598176	700.000000	250	250	0	0	1	-360	360;
	36	37	0.002000	0.020000	0.598176	700.000000	250	250	0	0	1	-360	360;
	36	37	0.002000	0.020000	0.598176	700.000000	250	250	0	0	1	-360	360;
	37	19	0.004000	0.040000	1.201344	700.000000	250	250	0	0	1	-360	360;
	37	19	0.004000	0.040000	1.201344	700.000000	250	250	0	0	1	-360	360;
	37	21	0.011000	0.080000	2.397664	700.000000	250	250	0	0	1	-360	360;
	17	18	0.001000	0.015000	0.497632	700.000000	250	250	0	0	1	-360	360;
	20	21	0.002000	0.020000	0.598176	700.000000	250	250	0	0	1	-360	360;
	21	22	0.003000	0.030000	0.899744	700.000000	250	250	0	0	1	-360	360;
	21	22	0.003000	0.030000	0.899744	700.000000	250	250	0	0	1	-360	360;
	12	13	0.003000	0.030000	3.000864	700.000000	250	250	0	0	1	-360	360;
	12	13	0.003000	0.030000	3.000864	700.000000	250	250	0	0	1	-360	360;
	2	38	0	0.018750	0	800	250	250	0	0	1	-360	360;
	3	39	0	0.025000	0	600	250	250	0	0	1	-360	360;
	24	40	0	0.021429	0	700	250	250	0	0	1	-360	360;
	25	41	0	0.025000	0	600	250	250	0	0	1	-360	360;
	4	42	0	0.060000	0	1250	250	250	0	0	1	-360	360;
	6	43	0	0.037500	0	400	250	250	0	0	1	-360	360;
	7	44	0	0.075000	0	1200	250	250	0	0	1	-360	360;
	11	45	0	0.017647	0	850	250	250	0	0	1	-360	360;
	26	46	0	0.015000	0	1000	250	250	0	0	1	-360	360;
	23	47	0	0.018750	0	800	250	250	0	0	1	-360	360;
	27	48	0	0.050000	0	300	250	250	0	0	1	-360	360;
	31	49	0	0.042857	0	1350	250	250	0	0	1	-360	360;
	14	50	0	0.017391	0	575	250	250	0	0	1	-360	360;
	15	51	0	0.021429	0	700	250	250	0	0	1	-360	360;
	18	52	0	0.025000	0	600	250	250	0	0	1	-360	360;
	18	53	0	0.025000	0	600	250	250	0	0	1	-360	360;
	19	54	0	0.021429	0	700	250	250	0	0	1	-360	360;
	19	55	0	0.021429	0	700	250	250	0	0	1	-360	360;
	21	56	0	0.025000	0	600	250	250	0	0	1	-360	360;
	22	57	0	0.025000	0	600	250	250	0	0	1	-360	360;
	22	58	0	0.025000	0	600	250	250	0	0	1	-360	360;
	12	59	0	0.030000	0	500	250	250	0	0	1	-360	360;
	13	60	0	0.003333	0	4500	250	250	0	0	1	-360	360;
	26	1	0	0.008000	0	1250	250	250	0.892860	0	1	-360	360;
	23	2	0	0.008000	0	1250	250	250	0.892860	0	1	-360	360;
	28	4	0	0.012000	0	833.300000	250	250	0.934580	0	1	-360	360;
	31	10	0	0.012000	0	833.300000	250	250	0.952380	0	1	-360	360;
	36	8	0	0.010000	0	1000	250	250	0	0	1	-360	360;
	36	8	0	0.010000	0	1000	250	250	0	0	1	-360	360;
	37	9	0	0.010000	0	1000	250	250	0	0	1	-360	360;
	37	9	0	0.010000	0	1000	250	250	0	0	1	-360	360;
	5	61	0	0.025000	0	1200	250	250	0	0	1	-360	360;
];
